CC(=O)NC(C)=C(C)C react  energy: -28.253334999686 gnorm: 0.002671800506 xtb: 6.3.3 (5b13467)
 OpenBabel04122116393D

 22 21  0  0  0  0  0  0  0  0999 V2000
    3.1524   -0.4191    1.0890 C   0  0  0  0  0  0  0  0  0  0  0  0
    2.1528    0.3967    0.3055 C   0  0  0  0  0  0  0  0  0  0  0  0
    2.4769    1.3880   -0.3064 O   0  0  0  0  0  0  0  0  0  0  0  0
    0.9072   -0.1183    0.3654 N   0  0  0  0  0  4  0  0  0  0  0  0
   -0.2319    0.3659   -0.2771 C   0  0  0  0  0  0  0  0  0  0  0  0
   -0.0204    1.6351   -1.0483 C   0  0  0  0  0  0  0  0  0  0  0  0
   -1.3956   -0.2737   -0.1889 C   0  0  0  0  0  3  0  0  0  0  0  0
   -2.6518    0.1789   -0.8918 C   0  0  0  0  0  0  0  0  0  0  0  0
   -1.5972   -1.5252    0.6311 C   0  0  0  0  0  0  0  0  0  0  0  0
    3.4430   -1.2867    0.4984 H   0  0  0  0  0  0  0  0  0  0  0  0
    4.0344    0.1857    1.2857 H   0  0  0  0  0  0  0  0  0  0  0  0
    2.7220   -0.7657    2.0253 H   0  0  0  0  0  0  0  0  0  0  0  0
    0.7677   -0.9541    0.9093 H   0  0  0  0  0  0  0  0  0  0  0  0
   -0.9616    2.0196   -1.4334 H   0  0  0  0  0  0  0  0  0  0  0  0
    0.6650    1.4584   -1.8793 H   0  0  0  0  0  0  0  0  0  0  0  0
    0.4323    2.3867   -0.4023 H   0  0  0  0  0  0  0  0  0  0  0  0
   -3.2519    0.8094   -0.2305 H   0  0  0  0  0  0  0  0  0  0  0  0
   -2.4255    0.7407   -1.7970 H   0  0  0  0  0  0  0  0  0  0  0  0
   -3.2462   -0.6947   -1.1625 H   0  0  0  0  0  0  0  0  0  0  0  0
   -1.6404   -2.4021   -0.0198 H   0  0  0  0  0  0  0  0  0  0  0  0
   -2.5403   -1.4568    1.1764 H   0  0  0  0  0  0  0  0  0  0  0  0
   -0.7910   -1.6688    1.3511 H   0  0  0  0  0  0  0  0  0  0  0  0
  1 11  1  0  0  0  0
  1 12  1  0  0  0  0
  2  4  1  0  0  0  0
  2  1  1  0  0  0  0
  3  2  2  0  0  0  0
  4 13  1  0  0  0  0
  5  7  1  0  0  0  0
  5  4  2  0  0  0  0
  6 16  1  0  0  0  0
  6  5  1  0  0  0  0
  7  9  1  0  0  0  0
  8 17  1  0  0  0  0
  8  7  1  0  0  0  0
  9 21  1  0  0  0  0
  9 22  1  0  0  0  0
 10  1  1  0  0  0  0
 14  6  1  0  0  0  0
 15  6  1  0  0  0  0
 18  8  1  0  0  0  0
 19  8  1  0  0  0  0
 20  9  1  0  0  0  0
M  END
$$$$
