CC(C)[C@@H](Oc1cccc2c1P(C(C)(C)C)8->[C@H]([C@@H]1Oc3cccc(O[C@@H](c4ccccc4)C(C)C)c3P9->1C(C)(C)C)O2)c1ccccc1.[Rh+]89  energy: -137.665192922764 gnorm: 0.002377766424 xtb: 6.3.3 (5b13467)
 OpenBabel04122116393D

101107  0  0  1  0  0  0  0  0999 V2000
   -2.7531   -0.9928   -2.9887 C   0  0  0  0  0  0  0  0  0  0  0  0
   -3.8769   -0.5136   -2.0852 C   0  0  0  0  0  0  0  0  0  0  0  0
   -5.1552   -1.3010   -2.3353 C   0  0  0  0  0  0  0  0  0  0  0  0
   -3.4406   -0.6011   -0.6279 C   0  0  1  0  0  0  0  0  0  0  0  0
   -4.4119    0.0922    0.1008 O   0  0  0  0  0  0  0  0  0  0  0  0
   -4.1942    0.2860    1.4265 C   0  0  0  0  0  0  0  0  0  0  0  0
   -5.2238   -0.0622    2.3005 C   0  0  0  0  0  0  0  0  0  0  0  0
   -5.0757    0.1438    3.6672 C   0  0  0  0  0  0  0  0  0  0  0  0
   -3.9137    0.6772    4.1991 C   0  0  0  0  0  0  0  0  0  0  0  0
   -2.8932    1.0585    3.3289 C   0  0  0  0  0  0  0  0  0  0  0  0
   -3.0511    0.8943    1.9418 C   0  0  0  0  0  0  0  0  0  0  0  0
   -1.5866    1.5203    1.1169 P   0  0  1  0  0  4  0  0  0  0  0  0
   -2.0247    3.0970    0.2300 C   0  0  0  0  0  0  0  0  0  0  0  0
   -2.8658    4.0190    1.0990 C   0  0  0  0  0  0  0  0  0  0  0  0
   -0.7119    3.7704   -0.1534 C   0  0  0  0  0  0  0  0  0  0  0  0
   -2.7894    2.7235   -1.0335 C   0  0  0  0  0  0  0  0  0  0  0  0
   -0.8442    1.9620    2.7777 C   0  0  2  0  0  0  0  0  0  0  0  0
    0.5009    1.2720    2.9632 C   0  0  2  0  0  0  0  0  0  0  0  0
    1.5060    2.2837    3.1225 O   0  0  0  0  0  0  0  0  0  0  0  0
    2.4059    2.2759    2.1382 C   0  0  0  0  0  0  0  0  0  0  0  0
    3.3805    3.2684    2.0086 C   0  0  0  0  0  0  0  0  0  0  0  0
    4.2080    3.2386    0.8949 C   0  0  0  0  0  0  0  0  0  0  0  0
    4.1033    2.2674   -0.0972 C   0  0  0  0  0  0  0  0  0  0  0  0
    3.1477    1.2576    0.0410 C   0  0  0  0  0  0  0  0  0  0  0  0
    2.8629    0.2582   -0.7868 O   0  0  0  0  0  0  0  0  0  0  0  0
    3.3444    0.2915   -2.1137 C   0  0  1  0  0  0  0  0  0  0  0  0
    4.7837   -0.1255   -2.1838 C   0  0  0  0  0  0  0  0  0  0  0  0
    5.6658    0.4610   -3.0805 C   0  0  0  0  0  0  0  0  0  0  0  0
    6.9843    0.0411   -3.1463 C   0  0  0  0  0  0  0  0  0  0  0  0
    7.4327   -0.9677   -2.3096 C   0  0  0  0  0  0  0  0  0  0  0  0
    6.5600   -1.5558   -1.4069 C   0  0  0  0  0  0  0  0  0  0  0  0
    5.2433   -1.1362   -1.3490 C   0  0  0  0  0  0  0  0  0  0  0  0
    2.4356   -0.7119   -2.8285 C   0  0  0  0  0  0  0  0  0  0  0  0
    0.9767   -0.3161   -2.6741 C   0  0  0  0  0  0  0  0  0  0  0  0
    2.7809   -0.7759   -4.3095 C   0  0  0  0  0  0  0  0  0  0  0  0
    2.3350    1.2632    1.1803 C   0  0  0  0  0  0  0  0  0  0  0  0
    0.9128    0.2096    1.4527 P   0  0  1  0  0  4  0  0  0  0  0  0
    1.5374   -1.4354    2.0824 C   0  0  0  0  0  0  0  0  0  0  0  0
    1.9504   -2.2540    0.8636 C   0  0  0  0  0  0  0  0  0  0  0  0
    0.3961   -2.1385    2.8082 C   0  0  0  0  0  0  0  0  0  0  0  0
    2.7217   -1.2599    3.0216 C   0  0  0  0  0  0  0  0  0  0  0  0
   -1.7599    1.5758    3.8090 O   0  0  0  0  0  0  0  0  0  0  0  0
   -3.2463   -1.9966   -0.1228 C   0  0  0  0  0  0  0  0  0  0  0  0
   -1.9779   -2.5492   -0.0448 C   0  0  0  0  0  0  0  0  0  0  0  0
   -1.7721   -3.8399    0.3982 C   0  0  0  0  0  0  0  0  0  0  0  0
   -2.8618   -4.6055    0.7831 C   0  0  0  0  0  0  0  0  0  0  0  0
   -4.1362   -4.0625    0.7402 C   0  0  0  0  0  0  0  0  0  0  0  0
   -4.3272   -2.7662    0.2921 C   0  0  0  0  0  0  0  0  0  0  0  0
   -0.5859    0.0349   -0.1986 Rh  0  0  0  0  0  0  0  0  0  0  0  0
   -2.5474   -2.0460   -2.7981 H   0  0  0  0  0  0  0  0  0  0  0  0
   -1.8504   -0.4123   -2.7751 H   0  0  0  0  0  0  0  0  0  0  0  0
   -3.0203   -0.8653   -4.0361 H   0  0  0  0  0  0  0  0  0  0  0  0
   -4.0717    0.5379   -2.2975 H   0  0  0  0  0  0  0  0  0  0  0  0
   -5.5147   -1.1119   -3.3459 H   0  0  0  0  0  0  0  0  0  0  0  0
   -5.9200   -0.9963   -1.6211 H   0  0  0  0  0  0  0  0  0  0  0  0
   -4.9665   -2.3687   -2.2261 H   0  0  0  0  0  0  0  0  0  0  0  0
   -2.4008   -0.0974   -0.6078 H   0  0  0  0  0  0  0  0  0  0  0  0
   -6.1326   -0.5027    1.9077 H   0  0  0  0  0  0  0  0  0  0  0  0
   -5.8832   -0.1401    4.3343 H   0  0  0  0  0  0  0  0  0  0  0  0
   -3.8002    0.8067    5.2689 H   0  0  0  0  0  0  0  0  0  0  0  0
   -3.7923    3.5227    1.3877 H   0  0  0  0  0  0  0  0  0  0  0  0
   -2.3176    4.2979    1.9985 H   0  0  0  0  0  0  0  0  0  0  0  0
   -3.1098    4.9253    0.5427 H   0  0  0  0  0  0  0  0  0  0  0  0
   -0.9046    4.6573   -0.7570 H   0  0  0  0  0  0  0  0  0  0  0  0
   -0.1623    4.0612    0.7418 H   0  0  0  0  0  0  0  0  0  0  0  0
   -0.1027    3.0689   -0.7317 H   0  0  0  0  0  0  0  0  0  0  0  0
   -3.0247    3.6180   -1.6097 H   0  0  0  0  0  0  0  0  0  0  0  0
   -3.7145    2.2082   -0.7768 H   0  0  0  0  0  0  0  0  0  0  0  0
   -2.1745    2.0561   -1.6451 H   0  0  0  0  0  0  0  0  0  0  0  0
   -0.6959    3.0437    2.8542 H   0  0  0  0  0  0  0  0  0  0  0  0
    0.4843    0.6709    3.8757 H   0  0  0  0  0  0  0  0  0  0  0  0
    3.4700    4.0590    2.7439 H   0  0  0  0  0  0  0  0  0  0  0  0
    4.9562    4.0170    0.7806 H   0  0  0  0  0  0  0  0  0  0  0  0
    4.7515    2.3088   -0.9632 H   0  0  0  0  0  0  0  0  0  0  0  0
    3.2185    1.2781   -2.5715 H   0  0  0  0  0  0  0  0  0  0  0  0
    5.3107    1.2522   -3.7327 H   0  0  0  0  0  0  0  0  0  0  0  0
    7.6658    0.5036   -3.8523 H   0  0  0  0  0  0  0  0  0  0  0  0
    8.4646   -1.2969   -2.3592 H   0  0  0  0  0  0  0  0  0  0  0  0
    6.9097   -2.3451   -0.7506 H   0  0  0  0  0  0  0  0  0  0  0  0
    4.5510   -1.5872   -0.6446 H   0  0  0  0  0  0  0  0  0  0  0  0
    2.5890   -1.6922   -2.3767 H   0  0  0  0  0  0  0  0  0  0  0  0
    0.3372   -1.0471   -3.1652 H   0  0  0  0  0  0  0  0  0  0  0  0
    0.6866   -0.2630   -1.5795 H   0  0  0  0  0  0  0  0  0  0  0  0
    0.8085    0.6655   -3.1184 H   0  0  0  0  0  0  0  0  0  0  0  0
    2.1288   -1.4857   -4.8156 H   0  0  0  0  0  0  0  0  0  0  0  0
    2.6429    0.2094   -4.7545 H   0  0  0  0  0  0  0  0  0  0  0  0
    3.8155   -1.0856   -4.4474 H   0  0  0  0  0  0  0  0  0  0  0  0
    2.7125   -1.7188    0.2952 H   0  0  0  0  0  0  0  0  0  0  0  0
    1.0825   -2.4094    0.2170 H   0  0  0  0  0  0  0  0  0  0  0  0
    2.3438   -3.2230    1.1723 H   0  0  0  0  0  0  0  0  0  0  0  0
    0.1266   -1.5867    3.7087 H   0  0  0  0  0  0  0  0  0  0  0  0
    0.6985   -3.1480    3.0892 H   0  0  0  0  0  0  0  0  0  0  0  0
   -0.4761   -2.1974    2.1543 H   0  0  0  0  0  0  0  0  0  0  0  0
    3.5482   -0.7751    2.5017 H   0  0  0  0  0  0  0  0  0  0  0  0
    3.0530   -2.2361    3.3794 H   0  0  0  0  0  0  0  0  0  0  0  0
    2.4364   -0.6515    3.8800 H   0  0  0  0  0  0  0  0  0  0  0  0
   -1.1131   -1.8972   -0.3227 H   0  0  0  0  0  0  0  0  0  0  0  0
   -0.7688   -4.2455    0.4514 H   0  0  0  0  0  0  0  0  0  0  0  0
   -2.7153   -5.6218    1.1311 H   0  0  0  0  0  0  0  0  0  0  0  0
   -4.9866   -4.6551    1.0594 H   0  0  0  0  0  0  0  0  0  0  0  0
   -5.3225   -2.3352    0.2724 H   0  0  0  0  0  0  0  0  0  0  0  0
  1 50  1  0  0  0  0
  1 51  1  0  0  0  0
  1  2  1  0  0  0  0
  2  4  1  0  0  0  0
  3 56  1  0  0  0  0
  3  2  1  0  0  0  0
  3 55  1  0  0  0  0
  4 57  1  1  0  0  0
  4 43  1  0  0  0  0
  4  5  1  0  0  0  0
  5  6  1  0  0  0  0
  6 11  2  0  0  0  0
  6  7  1  0  0  0  0
  7  8  2  0  0  0  0
  8  9  1  0  0  0  0
  8 59  1  0  0  0  0
  9 60  1  0  0  0  0
 10 42  1  0  0  0  0
 10  9  2  0  0  0  0
 11 10  1  0  0  0  0
 12 13  1  6  0  0  0
 12 11  1  0  0  0  0
 12 17  1  0  0  0  0
 13 14  1  0  0  0  0
 14 61  1  0  0  0  0
 14 62  1  0  0  0  0
 15 13  1  0  0  0  0
 15 65  1  0  0  0  0
 16 68  1  0  0  0  0
 16 13  1  0  0  0  0
 17 70  1  1  0  0  0
 17 18  1  0  0  0  0
 17 42  1  0  0  0  0
 18 19  1  0  0  0  0
 18 71  1  1  0  0  0
 20 19  1  0  0  0  0
 21 20  1  0  0  0  0
 21 72  1  0  0  0  0
 22 21  2  0  0  0  0
 23 24  2  0  0  0  0
 23 22  1  0  0  0  0
 24 36  1  0  0  0  0
 25 24  1  0  0  0  0
 26 75  1  6  0  0  0
 26 25  1  0  0  0  0
 27 26  1  0  0  0  0
 27 32  1  0  0  0  0
 28 27  2  0  0  0  0
 29 28  1  0  0  0  0
 29 30  2  0  0  0  0
 30 31  1  0  0  0  0
 31 32  2  0  0  0  0
 31 79  1  0  0  0  0
 32 80  1  0  0  0  0
 33 34  1  0  0  0  0
 33 81  1  0  0  0  0
 33 26  1  0  0  0  0
 34 83  1  0  0  0  0
 35 33  1  0  0  0  0
 36 37  1  0  0  0  0
 36 20  2  0  0  0  0
 37 38  1  1  0  0  0
 37 18  1  0  0  0  0
 38 40  1  0  0  0  0
 38 41  1  0  0  0  0
 39 90  1  0  0  0  0
 39 38  1  0  0  0  0
 40 92  1  0  0  0  0
 40 91  1  0  0  0  0
 41 95  1  0  0  0  0
 41 96  1  0  0  0  0
 43 44  2  0  0  0  0
 43 48  1  0  0  0  0
 44 45  1  0  0  0  0
 45 98  1  0  0  0  0
 45 46  2  0  0  0  0
 46 99  1  0  0  0  0
 47 46  1  0  0  0  0
 47100  1  0  0  0  0
 48 47  2  0  0  0  0
 49 12  1  0  0  0  0
 49 37  1  0  0  0  0
 52  1  1  0  0  0  0
 53  2  1  0  0  0  0
 54  3  1  0  0  0  0
 58  7  1  0  0  0  0
 63 14  1  0  0  0  0
 64 15  1  0  0  0  0
 66 15  1  0  0  0  0
 67 16  1  0  0  0  0
 69 16  1  0  0  0  0
 73 22  1  0  0  0  0
 74 23  1  0  0  0  0
 76 28  1  0  0  0  0
 77 29  1  0  0  0  0
 78 30  1  0  0  0  0
 82 34  1  0  0  0  0
 84 34  1  0  0  0  0
 85 35  1  0  0  0  0
 86 35  1  0  0  0  0
 87 35  1  0  0  0  0
 88 39  1  0  0  0  0
 89 39  1  0  0  0  0
 93 40  1  0  0  0  0
 94 41  1  0  0  0  0
 97 44  1  0  0  0  0
101 48  1  0  0  0  0
M  END
$$$$
