CO sol  energy: -7.598769563117 gnorm: 0.000924227848 xtb: 6.3.3 (5b13467)
 OpenBabel04122116393D

  6  5  0  0  0  0  0  0  0  0999 V2000
   -0.3515    0.0399   -0.0657 C   0  0  0  0  0  0  0  0  0  0  0  0
    0.8981   -0.6191   -0.0320 O   0  0  0  0  0  0  0  0  0  0  0  0
   -0.7009    0.3169    0.9370 H   0  0  0  0  0  0  0  0  0  0  0  0
   -0.3260    0.9447   -0.6863 H   0  0  0  0  0  0  0  0  0  0  0  0
   -1.0591   -0.6685   -0.5032 H   0  0  0  0  0  0  0  0  0  0  0  0
    1.5394   -0.0138    0.3502 H   0  0  0  0  0  0  0  0  0  0  0  0
  1  2  1  0  0  0  0
  1  3  1  0  0  0  0
  2  6  1  0  0  0  0
  4  1  1  0  0  0  0
  5  1  1  0  0  0  0
M  END
$$$$
