COC(=O)[C@@H](Cc1ccccc1)NC(C)=O prod  energy: -46.437380946892 gnorm: 0.003739189461 xtb: 6.3.3 (5b13467)
 OpenBabel04122116393D

 31 31  0  0  1  0  0  0  0  0999 V2000
   -0.0659    3.4975    1.2183 C   0  0  0  0  0  0  0  0  0  0  0  0
    0.4426    2.2058    1.4919 O   0  0  0  0  0  0  0  0  0  0  0  0
    0.8495    1.5835    0.4423 C   0  0  0  0  0  0  0  0  0  0  0  0
    0.8144    1.9732   -0.7145 O   0  0  0  0  0  0  0  0  0  0  0  0
    1.3742    0.2009    0.7781 C   0  0  1  0  0  0  0  0  0  0  0  0
    0.2842   -0.6230    1.4857 C   0  0  0  0  0  0  0  0  0  0  0  0
   -0.9680   -0.6233    0.6577 C   0  0  0  0  0  0  0  0  0  0  0  0
   -1.9412    0.3424    0.8764 C   0  0  0  0  0  0  0  0  0  0  0  0
   -3.0616    0.4112    0.0664 C   0  0  0  0  0  0  0  0  0  0  0  0
   -3.2174   -0.4883   -0.9760 C   0  0  0  0  0  0  0  0  0  0  0  0
   -2.2544   -1.4591   -1.1969 C   0  0  0  0  0  0  0  0  0  0  0  0
   -1.1355   -1.5259   -0.3828 C   0  0  0  0  0  0  0  0  0  0  0  0
    1.7491   -0.3982   -0.4752 N   0  0  0  0  0  0  0  0  0  0  0  0
    2.3033   -1.6178   -0.5277 C   0  0  0  0  0  0  0  0  0  0  0  0
    2.6522   -2.0837   -1.9165 C   0  0  0  0  0  0  0  0  0  0  0  0
    2.4976   -2.2989    0.4598 O   0  0  0  0  0  0  0  0  0  0  0  0
   -0.9732    3.4522    0.6067 H   0  0  0  0  0  0  0  0  0  0  0  0
    0.6720    4.1230    0.7048 H   0  0  0  0  0  0  0  0  0  0  0  0
   -0.3095    3.9483    2.1815 H   0  0  0  0  0  0  0  0  0  0  0  0
    2.2460    0.2648    1.4320 H   0  0  0  0  0  0  0  0  0  0  0  0
    0.6574   -1.6389    1.6301 H   0  0  0  0  0  0  0  0  0  0  0  0
    0.0907   -0.1608    2.4540 H   0  0  0  0  0  0  0  0  0  0  0  0
   -1.8078    1.0491    1.6887 H   0  0  0  0  0  0  0  0  0  0  0  0
   -3.8137    1.1712    0.2461 H   0  0  0  0  0  0  0  0  0  0  0  0
   -4.0911   -0.4335   -1.6152 H   0  0  0  0  0  0  0  0  0  0  0  0
   -2.3742   -2.1664   -2.0102 H   0  0  0  0  0  0  0  0  0  0  0  0
   -0.3840   -2.2879   -0.5565 H   0  0  0  0  0  0  0  0  0  0  0  0
    1.5714    0.1896   -1.2790 H   0  0  0  0  0  0  0  0  0  0  0  0
    1.7446   -2.3796   -2.4408 H   0  0  0  0  0  0  0  0  0  0  0  0
    3.1313   -1.2869   -2.4798 H   0  0  0  0  0  0  0  0  0  0  0  0
    3.3169   -2.9405   -1.8494 H   0  0  0  0  0  0  0  0  0  0  0  0
  1  2  1  0  0  0  0
  1 19  1  0  0  0  0
  3  5  1  0  0  0  0
  3  2  1  0  0  0  0
  4  3  2  0  0  0  0
  5 20  1  1  0  0  0
  5  6  1  0  0  0  0
  6 21  1  0  0  0  0
  6 22  1  0  0  0  0
  7  8  1  0  0  0  0
  7  6  1  0  0  0  0
  8 23  1  0  0  0  0
  9 24  1  0  0  0  0
  9  8  2  0  0  0  0
 10  9  1  0  0  0  0
 11 10  2  0  0  0  0
 11 12  1  0  0  0  0
 12  7  2  0  0  0  0
 13  5  1  0  0  0  0
 14 13  1  0  0  0  0
 14 16  2  0  0  0  0
 15 31  1  0  0  0  0
 15 14  1  0  0  0  0
 17  1  1  0  0  0  0
 18  1  1  0  0  0  0
 25 10  1  0  0  0  0
 26 11  1  0  0  0  0
 27 12  1  0  0  0  0
 28 13  1  0  0  0  0
 29 15  1  0  0  0  0
 30 15  1  0  0  0  0
M  END
$$$$
