CC(=O)N[C@@H](C)C(C)C prod  energy: -29.406139478286 gnorm: 0.001451325213 xtb: 6.3.3 (5b13467)
 OpenBabel04122116393D

 24 23  0  0  1  0  0  0  0  0999 V2000
    2.8275    1.3242   -0.3403 C   0  0  0  0  0  0  0  0  0  0  0  0
    1.8105    0.2669   -0.6812 C   0  0  0  0  0  0  0  0  0  0  0  0
    1.7980   -0.3070   -1.7521 O   0  0  0  0  0  0  0  0  0  0  0  0
    0.9099    0.0287    0.2827 N   0  0  0  0  0  0  0  0  0  0  0  0
   -0.1037   -0.9765    0.1116 C   0  0  1  0  0  0  0  0  0  0  0  0
   -0.1772   -1.8491    1.3512 C   0  0  0  0  0  0  0  0  0  0  0  0
   -1.4515   -0.3310   -0.2193 C   0  0  0  0  0  0  0  0  0  0  0  0
   -1.3615    0.3807   -1.5645 C   0  0  0  0  0  0  0  0  0  0  0  0
   -1.8780    0.6617    0.8543 C   0  0  0  0  0  0  0  0  0  0  0  0
    3.7990    1.0280   -0.7298 H   0  0  0  0  0  0  0  0  0  0  0  0
    2.8906    1.4764    0.7341 H   0  0  0  0  0  0  0  0  0  0  0  0
    2.5396    2.2611   -0.8142 H   0  0  0  0  0  0  0  0  0  0  0  0
    0.9291    0.5162    1.1594 H   0  0  0  0  0  0  0  0  0  0  0  0
    0.1960   -1.5885   -0.7414 H   0  0  0  0  0  0  0  0  0  0  0  0
   -0.3706   -1.2287    2.2246 H   0  0  0  0  0  0  0  0  0  0  0  0
    0.7666   -2.3706    1.4976 H   0  0  0  0  0  0  0  0  0  0  0  0
   -0.9780   -2.5781    1.2462 H   0  0  0  0  0  0  0  0  0  0  0  0
   -2.1950   -1.1243   -0.2874 H   0  0  0  0  0  0  0  0  0  0  0  0
   -2.3399    0.7585   -1.8587 H   0  0  0  0  0  0  0  0  0  0  0  0
   -0.9940   -0.3024   -2.3301 H   0  0  0  0  0  0  0  0  0  0  0  0
   -0.6723    1.2216   -1.4842 H   0  0  0  0  0  0  0  0  0  0  0  0
   -1.1259    1.4461    0.9439 H   0  0  0  0  0  0  0  0  0  0  0  0
   -2.8282    1.1190    0.5800 H   0  0  0  0  0  0  0  0  0  0  0  0
   -1.9910    0.1671    1.8177 H   0  0  0  0  0  0  0  0  0  0  0  0
  1 11  1  0  0  0  0
  2  1  1  0  0  0  0
  2  4  1  0  0  0  0
  3  2  2  0  0  0  0
  4 13  1  0  0  0  0
  5 14  1  6  0  0  0
  5  4  1  0  0  0  0
  5  6  1  0  0  0  0
  6 16  1  0  0  0  0
  6 15  1  0  0  0  0
  7  5  1  0  0  0  0
  7  9  1  0  0  0  0
  8 21  1  0  0  0  0
  8  7  1  0  0  0  0
  9 22  1  0  0  0  0
  9 24  1  0  0  0  0
 10  1  1  0  0  0  0
 12  1  1  0  0  0  0
 17  6  1  0  0  0  0
 18  7  1  0  0  0  0
 19  8  1  0  0  0  0
 20  8  1  0  0  0  0
 23  9  1  0  0  0  0
M  END
$$$$
