CCOC(C)=O sol  energy: -19.472400983268 gnorm: 0.003508986004 xtb: 6.3.3 (5b13467)
 OpenBabel04122116393D

 14 13  0  0  0  0  0  0  0  0999 V2000
    1.8197   -0.6696    0.5550 C   0  0  0  0  0  0  0  0  0  0  0  0
    1.2381    0.6524    0.0848 C   0  0  0  0  0  0  0  0  0  0  0  0
   -0.0438    0.4915   -0.4868 O   0  0  0  0  0  0  0  0  0  0  0  0
   -0.9610    0.1629    0.3584 C   0  0  0  0  0  0  0  0  0  0  0  0
   -2.3071    0.0143   -0.3117 C   0  0  0  0  0  0  0  0  0  0  0  0
   -0.8005   -0.0201    1.5497 O   0  0  0  0  0  0  0  0  0  0  0  0
    1.7929   -1.3926   -0.2580 H   0  0  0  0  0  0  0  0  0  0  0  0
    2.8494   -0.5336    0.8774 H   0  0  0  0  0  0  0  0  0  0  0  0
    1.2345   -1.0488    1.3912 H   0  0  0  0  0  0  0  0  0  0  0  0
    1.2136    1.3557    0.9232 H   0  0  0  0  0  0  0  0  0  0  0  0
    1.8641    1.0672   -0.7064 H   0  0  0  0  0  0  0  0  0  0  0  0
   -3.0737   -0.1217    0.4468 H   0  0  0  0  0  0  0  0  0  0  0  0
   -2.5306    0.8951   -0.9098 H   0  0  0  0  0  0  0  0  0  0  0  0
   -2.2956   -0.8527   -0.9700 H   0  0  0  0  0  0  0  0  0  0  0  0
  1  8  1  0  0  0  0
  1  9  1  0  0  0  0
  2  1  1  0  0  0  0
  2 10  1  0  0  0  0
  3  2  1  0  0  0  0
  3  4  1  0  0  0  0
  4  6  2  0  0  0  0
  5  4  1  0  0  0  0
  5 12  1  0  0  0  0
  7  1  1  0  0  0  0
 11  2  1  0  0  0  0
 13  5  1  0  0  0  0
 14  5  1  0  0  0  0
M  END
$$$$
